-------------------------------------------------------
          Amber 22 SANDER                              2022
          -------------------------------------------------------

  [-O]verwriting output

File Assignments:

 Here is the input file:

Production
 &cntrl
  imin=0,
  ntx=5,
  irest=1,
  nstlim=100000,
  dt=0.002,
  ntf=2,
  ntc=2,
  temp0=300.0,
  ntpr=500,
  ntwx=500,
  ntwv=500,
  cut=8.0,
  ntb=2,
  ntp=1,
  ntt=3,
  gamma_ln=2.0,
  ig=-1,
 /

--------------------------------------------------------------------------------
   1.  RESOURCE   USE:
--------------------------------------------------------------------------------

 getting box info from netcdf restart file
 NATOM  =    4307 NTYPES =      11 NBONH =    4263 MBONA  =      43
 NTHETH =     117 MTHETA =      55 NPHIH =     202 MPHIA  =     166
 NHPARM =       0 NPARM  =       0 NNB   =    6121 NRES   =    1411
 NBONA  =      43 NTHETA =      55 NPHIA =     166 NUMBND =      30
 NUMANG =      59 NPTRA  =      51 NATYP =      18 NPHB   =       0
 IFBOX  =       1 NMXRS  =      22 IFCAP =       0 NEXTRA =       0
 NCOPY  =       0

     BOX TYPE: RECTILINEAR
Note: ig = -1. Setting random seed to    49786 based on wallclock time in microseconds
      and disabling the synchronization of random numbers between tasks
      to improve performance.

--------------------------------------------------------------------------------
   2.  CONTROL  DATA  FOR  THE  RUN
--------------------------------------------------------------------------------

default_name

General flags:
     imin    =       0, nmropt  =       0

Nature and format of input:
     ntx     =       5, irest   =       1, ntrx    =       1

Nature and format of output:
     ntxo    =       2, ntpr    =     500, ntrx    =       1, ntwr    =  100000
     iwrap   =       0, ntwx    =     500, ntwv    =     500, ntwe    =       0
     ioutfm  =       1, ntwprt  =       0, idecomp =       0, rbornstat=      0

Potential function:
     ntf     =       2, ntb     =       2, igb     =       0, nsnb    =      25
     ipol    =       0, gbsa    =       0, iesp    =       0
     dielc   =   1.00000, cut     =   8.00000, intdiel =   1.00000

Frozen or restrained atoms:
     ibelly  =       0, ntr     =       0

Molecular dynamics:
     nstlim  =    100000, nscm    =      1000, nrespa  =         1
     t       =   0.00000, dt      =   0.00200, vlimit  =  20.00000

Langevin dynamics temperature regulation:
     ig      =   49786
     temp0   = 300.00000, tempi   =   0.00000, gamma_ln=   2.00000

Pressure regulation:
     ntp     =       1
     pres0   =   1.00000, comp    =  44.60000, taup    =   1.00000

SHAKE:
     ntc     =       2, jfastw  =       0
     tol     =   0.00001

Ewald parameters:
     verbose =       0, ew_type =       0, nbflag  =       1, use_pme =       1
     vdwmeth =       1, eedmeth =       1, netfrc  =       1
     Box X =   41.123   Box Y =   45.969   Box Z =   33.270
     Alpha =   90.000   Beta  =   90.000   Gamma =   90.000
     NFFT1 =   48       NFFT2 =   45       NFFT3 =   36
     Cutoff=    8.000   Tol   =0.100E-04
     Ewald Coefficient =  0.34864
     Interpolation order =    4

--------------------------------------------------------------------------------
   3.  ATOMIC COORDINATES AND VELOCITIES
--------------------------------------------------------------------------------

default_name
 begin time read from input coords =    20.000 ps

 Number of triangulated 3-point waters found:     1404

     Sum of charges from parm topology file =  -0.00000000
     Forcing neutrality...

--------------------------------------------------------------------------------
   4.  RESULTS
 NSTEP =      500   TIME(PS) =      21.000  TEMP(K) =   293.31  PRESS =  -164.6
 Etot   =    -10580.9813  EKtot   =      2523.1869  EPtot      =    -13104.1683
 BOND   =        21.4556  ANGLE   =        52.2292  DIHED      =        23.5853
 1-4 NB =        15.7482  1-4 EEL =       343.3257  VDWAALS    =      1967.9921
 EELEC  =    -15531.4151  EHBOND  =         0.0000  RESTRAINT  =         0.0000
 EKCMT  =      1237.3342  VIRIAL  =      1458.0006  VOLUME     =     62102.9468
 CMAP   =         2.9107
                                                    Density    =         0.6936
 Ewald error estimate:   0.1163E-03
 ------------------------------------------------------------------------------

      A V E R A G E S   O V E R  100000 S T E P S

 NSTEP =   100000   TIME(PS) =     220.000  TEMP(K) =   299.57  PRESS =   -40.9
 Etot   =    -10942.2359  EKtot   =      2577.0728  EPtot      =    -13519.3087
 BOND   =        15.6765  ANGLE   =        46.1061  DIHED      =        24.0492
 1-4 NB =        16.5357  1-4 EEL =       337.6756  VDWAALS    =      1955.1475
 EELEC  =    -15918.2853  EHBOND  =         0.0000  RESTRAINT  =         0.0000
 EKCMT  =      1258.5262  VIRIAL  =      1304.9923  VOLUME     =     44752.7114
 CMAP   =         3.7860
                                                    Density    =         0.9681
 Ewald error estimate:   0.1451E-03
 ------------------------------------------------------------------------------

      R M S  F L U C T U A T I O N S

 NSTEP =   100000   TIME(PS) =     220.000  TEMP(K) =     4.38  PRESS =   275.0
 Etot   =       136.4000  EKtot   =        37.6385  EPtot      =       131.5170
 BOND   =         3.3531  ANGLE   =         5.5782  DIHED      =         2.4814
 1-4 NB =         1.7208  1-4 EEL =         5.2796  VDWAALS    =        51.5011
 EELEC  =       150.5856  EHBOND  =         0.0000  RESTRAINT  =         0.0000
 EKCMT  =        26.4471  VIRIAL  =       274.1954  VOLUME     =      3800.4649
 CMAP   =         1.8078
                                                    Density    =         0.0653
 Ewald error estimate:   0.1102E-03
 ------------------------------------------------------------------------------
